103
 energy: -156.724048569092 gnorm: 0.155262413393 xtb: 6.6.1 (8d0f1dd)
C           19.25617247279328       24.05335317632624       16.03020372664614
C           18.78816368672837       22.75515514846617       16.21028371330645
C           18.29044161473560       22.05595515172200       15.11497339106862
C           18.07670228543897       22.65587782627097       13.88720434057738
C           18.48153050395176       23.97520620040477       13.77031401285088
C           18.97817942000712       24.70096154584704       14.84028352204025
C           18.98236585729788       21.95777074911173       17.44115890387092
C           18.01275107357107       21.99515886172194       18.45173633644700
N           17.97199025304289       21.49372738322280       19.71046825718075
C           16.80189574735479       21.83657549395128       20.30339427755860
C           16.06008852568678       22.61415785973914       19.35674932006554
C           16.78426426406365       22.69034707687971       18.20960999274027
Sn          19.60065300772085       20.30604849144495       20.42680444800041
Cl          18.56667757434455       18.24638213072195       19.82481891467098
C           16.53955002253318       21.55178946744593       21.64981182156264
C           15.29710428499078       22.13368562590657       22.19957974337152
C           15.21218502815123       23.41531644350124       22.73534755196302
C           14.02848586610430       23.84264034505649       23.30559221079218
C           12.95885891528055       22.96009346383213       23.39927224122408
C           12.97863275948353       21.68299307271834       22.85219974196945
C           14.15495984201111       21.33883617732043       22.21447276607664
C           20.21617685227719       21.30761089186958       17.56892314935322
N           20.66616883636564       20.58882028387639       18.62677091079246
C           21.89636481834949       20.06845148670332       18.39579431723454
C           22.27542635675207       20.53436521895115       17.09539134792759
C           21.28940283161145       21.33955319327454       16.62086368449402
C           22.74840762627102       19.35571846830664       19.24933579429725
C           24.17428515942306       19.10642022876719       18.94447772717886
C           25.14684598942752       20.09550879068939       19.05573700204528
C           26.50077945142459       19.84834314602713       18.91870874469870
C           26.84837337705465       18.51727426180027       18.75871177855547
C           25.90057323868743       17.51950001603246       18.60243748524301
C           24.54720959337370       17.80246126886377       18.63192093452918
C           22.49162399227704       19.17174552846317       20.61401155208371
N           21.30303071292878       19.44577261115650       21.20545960361478
C           21.33311689317728       18.93451612908395       22.46065108386881
C           22.66273060199579       18.45744387843012       22.69734535515030
C           23.42549833116491       18.73169716336300       21.60704830966199
C           20.33832524931649       18.98509876265667       23.44515262712830
C           20.46520108302739       18.04615819378725       24.58156281557749
C           20.99332832483795       18.49518282677457       25.78824306713993
C           21.16471800995488       17.52988033871925       26.76366899739247
C           20.80360330922518       16.20379452911211       26.59268141329869
C           20.44624180698725       15.81722392740258       25.31166670815984
C           20.16151157652697       16.71756693172613       24.30103643919246
Cl          20.55500795149236       22.37374931345344       21.12656728776384
N           18.62645286759287       20.27528378497058       22.27406619092847
C           17.39707677182023       20.81053106015008       22.47388886554925
C           17.04477788294923       20.49181848078857       23.82513147236603
C           18.07582765567852       19.78550788998605       24.35810172873726
C           19.11907995697334       19.67184228766674       23.38364643833479
H           21.34833717899761       21.77756227995139       15.64347529912791
H           23.15672468604198       20.25737487557141       16.55022720547868
H           16.48327166795415       23.27744451332365       17.36379498423038
H           15.12261277897259       23.07215142692127       19.60543852376570
H           16.08137592785067       20.69007316488621       24.25293387499290
H           18.15855531987001       19.43165269359091       25.36734404905395
H           23.06323446766774       18.21619250816064       23.66278831264091
H           24.46821440632592       18.50447895748588       21.49899321780382
H           24.86458760164568       21.11675681873223       19.26598107598164
H           27.26223173080148       20.61432842629376       18.90908687567659
H           27.89917434942041       18.27319673738289       18.71060439278863
H           26.31316577930047       16.52513690805628       18.51522683717301
H           23.78302353150436       17.05418865702713       18.48059812189206
H           21.29557776423652       19.51574194157853       25.97226732123573
H           21.58349935176919       17.78175540198934       27.72686954727227
H           20.81405934085446       15.48485462884081       27.39834866627527
H           20.20911433921595       14.78445992628063       25.10247972672500
H           20.05917331459694       16.43063006492616       23.26470515511440
H           16.09674968437077       24.03515855080692       22.71811406232574
H           14.01776228134303       24.86751111319204       23.64844765157624
C           11.61914250142248       23.30292803002524       23.98031554908751
H           12.06801397632218       21.10206271330665       22.81654267347151
H           14.32463020230811       20.41932810737655       21.67353527690357
H           18.12786080492922       21.00478168256367       15.30312131631329
H           17.61272262517816       22.10658024954138       13.08121587445262
H           18.22351785733594       24.42538421083504       12.82330318679804
H           19.13436997486686       25.74581770164885       14.61564917774433
H           19.76287124261841       24.55238159363381       16.84322486232251
H           11.78513609718338       24.09869218458561       24.70990033479204
C           10.74856365759229       23.92865323047708       22.88367294838457
H           11.13419415009579       22.44011470984544       24.44183545933245
C           11.15747540207905       25.36705619759114       22.57796173471558
H           10.94919871691750       23.26836684045380       22.03856680120378
H            9.69357402994133       23.93350091920437       23.16838411063806
C           10.57245094234853       25.98989854946307       21.30973523835747
H           10.87855195725306       25.99776747555527       23.42661428281107
H           12.21025943941306       25.49176431443800       22.31888473182284
C           11.24132698477564       25.47774086149993       20.03180182020897
H            9.51389744436515       25.76657817712491       21.15142478334842
H           10.60025373562871       27.07981645126596       21.36671201200907
C           10.84599587396648       26.39961717773554       18.87702419456078
H           12.32696774081201       25.56919154091553       20.10526554783351
H           10.95942287243328       24.44405484518384       19.81461099185279
C           11.99362507729234       26.74950008143460       17.93226561977952
H           10.07335892912672       25.92190766980482       18.27198875406268
H           10.37005884872789       27.28331793800659       19.31053703862365
C           12.53074004928461       25.44679747823083       17.35138473068940
H           11.63450734662929       27.52351427235606       17.24973646131721
H           12.73552027470369       27.24856406893150       18.55785096270187
H           12.90253699375732       24.80531829527134       18.14771843283291
H           11.70322484426499       24.87203018646050       16.94162997381751
H           13.31530160747189       25.44771715711482       16.59739513040375
