60
 energy: -107.336331755570 gnorm: 0.000030086148 xtb: 6.5.1 (579679a)
S           10.15853488444259       12.56276211595233        7.51247212618311
C           10.67250544729510       11.06770217039579        8.23699889897778
C           11.63050958659023       10.37321617449796        7.43471448924398
C           11.90759389836861       11.10284266287295        6.24291516760843
C           11.21339227134889       12.27210677100688        6.13964002924416
C           12.05429806046699        9.18862367000794        7.98992983296059
S           11.26427218739319        8.93575509199017        9.51033191589392
C           10.35266646833085       10.42799836905296        9.40830911169200
C            9.45452998645563       10.81319549319921       10.44095039121444
S            8.55795891938964       12.31210020374726       10.31087784152055
C            7.77734456039077       12.00858394707944       11.84324972107836
C            8.23610956170653       10.80287710439130       12.42337678959797
C            9.17845941703737       10.14295340818805       11.59656363323370
C            6.78808225278604       12.80675065065338       12.41182702727147
C            6.25118834424424       12.36154346365228       13.63268675133851
C            6.71714573487568       11.16093630050498       14.21721188610619
C            7.71030551138016       10.36725856251132       13.65536047924105
S            5.92532907670957       10.85528950832839       15.74011874585256
C            4.99645784972661       12.32728412994084       15.59376484368845
C            5.27482247974406       12.99695489758950       14.45413527323707
C            6.34151606956266       14.01386931890382       11.74430576584727
S            4.65189409774444       14.43299736893472       11.64547938762650
C            5.00092485529376       15.83692144294831       10.68912396133585
C            6.33822258833578       15.95669205024456       10.47484486341079
C            7.09739672444411       14.92451924441447       11.06237945471414
C            3.90183656896357       16.72280149887031       10.22339542306036
C            8.20258566348759        9.16325547990640       14.29361023732434
C            9.49819775640817        8.75018948712085       14.42455440854463
C            9.62733764661186        7.52497440565389       15.10919766826632
C            8.43662781908741        6.99365624352179       15.49680195130993
S            7.11670926048704        8.01590247295282       15.02783852952186
C            4.03814337874290       12.69687201562711       16.66623215764040
C            8.18200973082343        5.72455141124653       16.22746400184811
C           13.02767312685998        8.20801695660158        7.45119013331559
F           12.77082467429382       10.66444119053127        5.32738150495409
C           11.26155190384197       13.25277107691187        5.05403570945090
O           10.43234794322367       14.27677029123901        5.31603139257399
C           10.38437307680720       15.30057233731438        4.33618522441412
O           11.94025001866266       13.16950655526781        4.06297105501855
H            3.54721973581490       13.63563980668988       16.42184462447605
H            4.55444179834706       12.80341750202665       17.61996848759455
H            3.28148851341750       11.92157899228642       16.78383539288763
H            4.80710181173535       13.93060299843355       14.20119618908670
H           10.33653715763479        9.32790825104360       14.07795889473697
H           10.57504193895627        7.05628282400522       15.30836869282692
H           13.42819251600081        8.56158219784240        6.50490996250076
H           12.54929540397086        7.24136756460872        7.29286313095545
H           13.84969128638474        8.05955958484033        8.15113428110802
H            9.61822491610089        9.19071723860959       11.83210284270454
H            8.16996821322500       14.87886970168706       11.00882939969189
H            6.77452354003989       16.76110183244501        9.90957390662027
H            7.54449479957227        5.06351023791761       15.64084983933324
H            9.12229336802715        5.21731120675967       16.43019707597310
H            7.67663893896001        5.92059527731531       17.17285456033658
H            9.67019675680723       16.03425133283644        4.70047823494258
H           11.37089020929866       15.75206138878812        4.21079494980649
H           10.06146843853510       14.89196003377535        3.37624493505714
H            4.31139166881672       17.55022579425534        9.64888674626933
H            3.20233745966089       16.17110749330091        9.59554292876522
H            3.34388112632972       17.12370119675602       11.06945313895845
