54
 energy: -131.378591290261 gnorm: 0.094751972285 xtb: 6.6.1 (8d0f1dd)
Te           6.04821343447986        5.99541686037059        9.46140163522657
Te           6.17704357502659        9.77756757378375        6.22146792970734
Hg           5.00747051191693        8.27451431931728       10.65743765241919
Hg           5.02083062175543       11.46977701633612        8.33111208733131
Te           3.11207173623388       10.38586851522225       10.26796419601935
Te           6.53046618653510       13.51738202961700        9.71749892252430
Te           6.43441557755074        9.98598326983396       12.51104927065244
Hg           4.41950267330053       10.83483503746144       15.42671721712633
Te           7.36217564528370       11.87717468973675       16.41984009177043
Hg           3.92328627998633       11.60770334581143       12.91575982741007
Te           5.21464122731651       14.26533729344306       12.29793218894686
Te           9.51069264319385        6.32922402819534        6.20588655694097
Hg           8.27561336943924        4.95112805160360       10.87439040425670
Hg          11.00544175240544        5.08226722557416        8.11393580927142
Te           9.52525901341099        2.85142727047222        9.29269088525031
Te          13.07779508699436        6.61328898367411        9.61873849909889
Te           9.64754894607113        6.40217933764868       12.91924583156605
Hg          12.26189491939286        5.89677314968298       14.40433155485706
Te          11.62488182111107        7.96628077259135       16.59937060807322
Hg           8.36031233705897       11.00340468557402        4.67945756016105
Hg          10.53673738938378        8.22836905961791        4.49489746824199
Te           8.70735494468791        9.14801049348468        2.48961139372337
Te          12.59773837073965        9.76912754695205        5.70428990516193
Te           9.72380113775832       13.05882366360555        6.15096343682823
Hg           7.62657949550095        7.93702500881398        7.66544749050717
Hg           8.30156921156532       11.44124590584702       10.80194817817986
Hg          10.96974301133758        7.95160202599402       10.95384551632923
Hg          11.07287366336915       11.07652665796733        7.71884485406463
Te           9.43333275436964        9.42923588359574        9.21780397082711
Te          12.68948825909187       12.38129143931549        9.47295012679080
Te          12.65730547201285        9.53535792695690       12.53812611711226
Te           9.66296361903447       13.30853600742771       12.76667043927405
Hg           8.08765473558662        8.32180066475000       14.06623577900616
Hg          11.05394347045379       11.42342895644983       14.29922099469038
Te           9.43216975696084        9.83696619959585       16.11665118230262
Te          13.40117195219830       12.32749424372697       15.92193942126158
Hg          12.46049606420392       14.31695151421011        5.15948824803144
Te          13.10719598911232       16.18429908889077        7.37956471521915
Hg           8.55662520091748       14.93001216915039        8.03937645195763
Hg          11.78671692783207       14.52025288303192       11.22496995336117
Te          10.90692053504789       16.21631697850412        9.07107696453928
Te          14.64277394130862       15.15024240530815       11.68823151643065
Hg           7.17174234486332       13.61877092679497       14.26122761702575
Hg          14.12565202792947        6.74887866710609       12.86549000723680
Te          16.28300942304794        8.57124645663422       14.34808073312147
Hg          14.30330652991717       12.22724959364883        4.91186677265418
Te          16.24586697435787       12.32070733681836        7.25258764608346
Hg          14.05984217519373        8.52833500330530        7.69618059713713
Hg          14.51985610049344       10.90340890858961       10.99711877944432
Te          16.11347584833802        9.98169854721954        8.74130252043525
Te          16.80708640287386       10.76919594459345       12.94533894610285
Hg          13.72859746614593        9.53129107166679       15.64590276377736
Hg          14.61731391346523       14.19460603355850        8.92295445138664
Hg          15.11182636556716       13.08653078441762       13.62841198924666
