422
 energy: -1005.129605854549 gnorm: 0.015632908939 xtb: 6.6.1 (8d0f1dd)
Te           5.37177570289930        6.65150946281284       14.45263171094817
Te           7.16022792688381       11.95662140488106        6.74560216758102
Te           8.19463151328570        7.91817163422085       10.60495522880558
Te           5.06445349565650       13.47714302813576       11.29397417594790
Hg           3.35088594242282        7.73013960677623       16.18123598207912
Hg           5.64977019683522        8.73221402214574       12.18369887999562
Te           4.75786119857429       12.47452315126681       15.75360792685860
Te           4.65156238168345        9.00433556357956       18.44601210513123
Te           1.84134018806177       13.11609572918730       19.32128193375780
Hg           3.58609532138793       10.99318259466985       20.28887293717952
Te           3.34548124630287       10.76269736820888       23.12720061381884
Te           6.35581388684833       17.13167097764694        4.73320439599144
Hg           7.31302104197488       12.94299136184649        9.42680159549315
Hg           6.92276922309015       17.93774717641942        7.41617716880694
Te           6.97479698242273       19.47699867995075        9.80580156521555
Te           5.98898273401265       15.66040957932940       12.70376689628438
Te           2.81193060404246       19.31447478017260       12.05494602330122
Hg           3.41427878096573       14.41217633424611       17.28630151889405
Hg           3.98414937782461       17.55017341172337       13.91536436748658
Te           2.09469947288878       16.63478219391365       15.97923718355641
Te           5.60544111033940       19.11249822680027       15.63689831598806
Te           5.40658345067661       15.78260570909490       18.78365656423067
Te           1.99715456944990       18.51619936299308       17.98091443906508
Hg           3.26165555488078       13.62962181075480       23.43700593766805
Hg           3.39765353750552       17.21580222662320       20.14164760600490
Te           1.84749028737005       14.99938620861412       21.30462959286887
Te           5.06188619108230       18.60553744965290       22.01146466608563
Te           4.35815336499494       15.49841804972809       25.36730434214108
Hg           5.03864388384093       20.90458999103216       11.35540187629022
Te           6.42379600514895       22.97804198202049       12.90533859880189
Hg           3.85576163737856       20.65668180665681       17.26138298222440
Hg           4.82825360331732       24.09342178707187       15.10134943436662
Te           2.52291232796514       22.66316271976380       15.78805373090499
Te           6.36884391958828       25.82484796720424       16.75353243131159
Te           5.73983082548358       21.78162856395556       19.16662010586050
Hg           3.86426294835478       20.16238424542815       24.02484600084067
Hg           4.95698892361075       23.85435236111530       21.06726661835478
Te           4.27590230791008       23.01019896864846       23.76152866807046
Te           3.71167839823531       18.31138635647078       26.25039799750169
Te          10.31597514920930        7.34313499100290        8.78942580140700
Te          13.03863470725839        3.63547000210598       12.04047660550771
Te           8.77099961924386        4.23321391606815       13.60328164304389
Hg           7.06636456644788        4.72116666445025       15.79221571177323
Hg          11.47425907137364        4.92379048728915       14.11145188882548
Te          12.06681104840771        5.50999536783680       16.81074118145875
Te          12.28233895551807        2.75938595373037       20.04041631247186
Te           7.51099971602383        4.65844950089351       18.60615216183792
Hg          10.37059104290211        4.64334592058148       18.99932490459688
Te          10.67736848994537        4.27778453004578       24.41398930947402
Te           9.55843244932644       11.33878826539725        2.71282069930739
Te          12.54867939657858       10.93622916761613        5.62605086072413
Te          10.13264421514216       14.84784515922050        5.19084788848380
Hg           6.09349895581100       11.27819105339105       13.00223333100674
Hg          10.80397857423054        9.57488686965119       10.83482262266306
Hg           9.76993344288343       11.89178315761974        5.52179997728330
Te           8.78745845747316       11.64925265580612       11.44105822632010
Te          12.16626834418195       13.33173115192456        8.80277082293343
Te          12.10767269042939        7.52575055541607       12.74371976121718
Te           8.24167195871211       11.64573212173854       15.02654034396162
Hg           8.40047985720236        7.08484129075979       13.40366303341061
Hg           6.60391731303784       11.12058564762474       17.62950925317295
Hg          12.84944777148524        8.33031211774133       17.33184675761050
Hg           9.13967047335048        8.90921912631752       15.14330992965195
Te           8.71552607737796        9.15073194730677       18.00020392257402
Te          11.90895514447426        9.51677934185493       14.80961595211974
Te          11.38395752671261        6.40628965484552       21.05159451950849
Te           6.39797598111445       11.96700236784261       20.40593075366604
Hg           6.74155332622971        7.25427964022271       19.45606516978964
Hg           6.14056623207759       10.21807052067415       22.95198158610046
Hg           9.90976374474129        6.90785284648619       23.63062015003644
Hg           9.52915150776299        8.51829444068207       20.74227372081777
Te           7.28929336787574        7.68873548776715       22.31998033255929
Te          11.06376051590251       10.79408307065652       21.08103599802345
Te          11.26656997494206        9.29251285676254       24.75102470575035
Te           7.90218806081218       11.88476162069792       24.42720956332456
Hg          10.09517893931164       11.51261748546308       26.36336122032437
Te          12.25960755365602       11.24442088478162       28.53617671823062
Hg           9.22273595770912       17.72286400956119        4.18284385397101
Hg          10.02753147468807       14.22531150501184        2.10682082324803
Te          13.12202315255995       17.82382359078305        1.13065989757575
Te          12.92012201725159       15.85589946928280        4.77916494786953
Te           9.71621992410983       18.48151932043081        6.95132774394992
Hg           7.21540129994129       14.67529181360971        5.89612416059885
Hg           8.12312078967233       17.11387320167509       11.29474918828539
Hg          10.29028235137793       13.25495024406371       13.24878098623331
Hg          10.75485243894649       15.83836497534070        7.86370016189463
Te           8.05886649957244       15.58698835506747        8.82409218968197
Te          13.24916083961318       17.06297378204596        8.70928647013634
Te          10.95982027513032       15.83124366702015       11.85191042813525
Te           9.32795107167823       18.97645801465350       13.11964516817853
Hg           6.90353867482018       14.17926435036363       14.99634482489826
Hg           7.09006797691422       17.50072430206460       17.37802902091869
Hg          12.45711581878982       12.38218344787207       14.42011879312856
Hg          10.84451752725201       16.96416531610119       14.50836155618228
Te           8.86656400072787       15.76078718452358       16.11114217489762
Te          12.65747665649599       20.45317068184367       15.59971785163674
Te          12.00423321323430       13.06606335147891       17.51861522504709
Te           9.11330974475545       18.28352754761736       19.17021683090054
Hg           6.59873843189238       14.77810623287347       21.15780361069007
Hg           6.29665484209349       16.28836736905155       23.28530285729754
Hg           8.91500772503074       12.33939233846201       21.79080762965485
Hg          10.52680861922556       15.38077982973814       18.37673997720198
Te           9.48355052566767       14.90295839431946       20.87540192977630
Te          11.65062538496549       17.82391113013654       23.25642665393070
Te          11.34733926927791       14.05982293282353       25.37109250290161
Te           8.15985060927931       17.43328808653266       25.18233610832694
Hg           6.44409393519660       13.64603647912897       26.20648853909472
Hg           9.64455724186461       15.76221355249624       26.96310063696831
Te           8.50377912071536       13.38652472363230       28.16753110335212
Te          11.79005850636015       17.59771952607931       27.72259923981277
Hg          11.58700672368349       18.63030547715718        3.41429386587490
Te          12.83941579153317       20.73291094736867        5.04582378037891
Hg           9.53644462173323       20.59482142591891        8.81752979759597
Hg          10.26337282250235       24.71013721160107       10.49938678593274
Hg          10.98436589477425       20.18304307965306       11.01668940627297
Hg          12.54982641825657       23.25241904443132        6.77893796830318
Te           9.86881612568139       23.30320339977103        7.91166664297308
Te          13.91596060119392       24.89340567218226        8.86406307409506
Te          12.01882571216234       22.75935188705729       11.75794675754019
Te           8.83809069942040       24.64637457691999       13.09965408739907
Hg           7.45839332828131       20.66621231457879       14.28631964683907
Hg           7.63703800193650       23.48824342163746       17.76353567379546
Hg          10.70022879453101       20.10661979495969       17.69338265651530
Hg          10.98724377706588       22.82088086447573       14.38253293712751
Te           9.09100052637515       21.80326010762071       16.20489244749766
Te          12.31794966813280       24.92280344031455       15.87295592012005
Te          12.07443954601220       21.13059939254073       19.86411590672184
Te           9.16452685020827       24.93175776938018       19.65488017036112
Hg           7.24010960104003       19.87626487097217       20.65879892338690
Hg           6.94741553802837       22.50624262767718       24.60850386825022
Hg          13.06058178796951       16.61223148583950       25.36933149042405
Hg          10.47611290834641       23.00191065831738       21.26395271700410
Te           8.63317765497814       21.35611294274564       22.62578971419466
Te          12.95191532380705       24.11545492225525       22.15956815487070
Te          12.42248465275876       21.11850074240898       24.94767862434313
Te           8.26764613927211       21.26761824814699       26.77666289300620
Hg           6.42828653155895       19.08052158222475       26.72793050477602
Hg           9.88644440714202       19.79282641453826       24.64090954087465
Hg          11.99369436426297       26.66551536424186       10.18658996231155
Te          13.98905011812360       28.06365159540395       11.70271624925552
Hg          10.31254040336917       26.70599945617047       14.56901548786293
Hg          11.46638346053819       26.23480873047077       18.42491997478687
Te          10.77160094876782       28.52940253324145       16.72969281887968
Te          14.22065146475316       30.96819415719772       18.60123001184295
Hg           6.27670876033147       25.80967719220845       19.76998035402897
Hg          13.29753264033205       23.73810264042882       24.87855346112357
Te          13.97063577659037        6.00194937419248        7.88483540851841
Hg          12.29486808009243        5.69499469285377       10.15330172811797
Hg          16.49578197026181        7.01115693301750        8.76646727758059
Te          18.29527355104720        5.58960308894577       10.90466794943061
Te          17.72671985993439        1.23501610533433       12.80128454477087
Te          15.60403984688129        4.75401890654802       12.09476430090499
Hg          14.05941122302823        3.79550545458583       18.02899195599646
Hg          16.84840240607265        3.39883567789511       14.40773384062433
Te          16.12028971719649        2.09488546544854       16.92402009675779
Te          18.54018359497122        5.51538205353331       15.39457415900783
Te          18.25090254830004        2.47399610331637       18.58528245532098
Te          15.68787077293307        5.78273536855167       19.19711221912972
Hg          12.96468392755799        4.10389488084256       22.63635124987973
Hg          17.10080025039636        3.97251897805726       20.85231120749636
Te          15.58527568681966        2.72666869221263       22.94010972372030
Te          18.43004333853662        6.00556508279916       22.30331982456309
Te          14.50193963181821        5.96068771156934       24.53979610643174
Hg          12.37006973732175       10.93905484846560        2.71519730087429
Hg          18.59559069435792        7.12444295706490        6.94329377842492
Te          19.04459347515788       12.40503169054104        1.35287679943071
Te          19.34946555894525       10.01066861455983        6.11473066815755
Te          16.34373076588986       13.26883645893715        4.86762501761591
Hg          12.88711589458240        8.62740632131870        7.38481214208313
Hg          13.03395015368098       10.83086993684794       10.11575268185089
Hg          18.22075989020323       10.33080677109822       10.43221878896743
Hg          16.93886566230799       11.35198678634531        6.94593815035216
Te          15.47855075392037        9.78612792934214        8.78592940153797
Te          17.76455882974322       13.58649929140895        8.45202002658272
Te          17.10403624789972        8.93999486862747       12.59875949767807
Te          14.61252680728468       12.05896959015951       12.20643455102148
Hg          14.92391579324639        7.29595117074039       13.22435749575006
Hg          11.36525799926864       10.45334741851112       18.28000734693378
Hg          17.23880261583193        7.17043506639541       17.28345483839475
Hg          16.23273505319339       10.81006288226011       14.69758320365383
Te          15.21176947470484        8.37386911919457       15.82363994272322
Te          19.27272894952608       13.99587828671811       14.97042012336003
Te          18.71898434568782        9.25457363423858       18.69946837225590
Te          16.84288711520735       12.95720378895053       18.45593359262782
Hg          13.64398613562425        7.59559739773420       19.85518017626501
Hg          13.13873635624526       10.96478421109377       23.06067016692879
Hg          16.36057969015622        7.70886072848548       23.28066321638256
Hg          16.83929891705021       10.70290265251459       20.16260443817401
Te          14.88710797477202        9.35474190114925       21.59136656700701
Te          18.35193996079536       12.04559129971369       22.08996044728319
Te          18.06428990238484        8.65954587978019       25.37472525200210
Te          15.05904768569855       11.70498556151021       25.16909833516625
Hg          13.20102987111543        7.82023430350625       26.17630277351031
Hg          16.54709511313949       10.31499427041384       27.17709183103075
Te          14.11566918237776        9.22308597513707       28.49230295601971
Te          18.28112238440996       11.78843891427884       28.96136807675922
Hg          12.53457504153240       15.10881925919539        1.83121490510620
Hg          16.35879584011444       13.34108317375147        1.92511844108940
Te          13.82080643726493       12.63346464546539        0.97780226750047
Te          17.00937059199256       15.90600728559865        0.85179754383407
Te          20.02856436326031       14.69869653653036        5.17620961477386
Te          15.37569166849795       17.33001948051440        4.92573490901518
Hg          13.83057477770145       13.56052971939724        6.40193756268367
Hg          17.36638072193194       12.98790384741413       11.24846788172574
Hg          20.03809417809877       16.40498252173398       10.88574608220681
Hg          17.43825450083293       15.77562756471345        6.25089118034266
Te          15.37320604546255       15.23178953152964        8.40893476240840
Te          18.59555243577211       17.49368277938156        8.49111666767936
Te          19.69783832456713       18.20506738215624       13.38217990830251
Te          16.11590246401155       15.58142478254613       12.04166889728430
Hg          13.60764658646581       14.65062639022677       10.95290409269930
Hg          12.98916429163731       17.46721763469407       15.90296381277712
Hg          16.43903215320277       15.08217193591215       14.77861905260469
Hg          16.94776286460592       18.34001653606687       12.38355790973385
Te          14.78710140502157       13.11720962645908       15.93166870094868
Te          15.88988134567891       17.80049979615935       15.51410325212831
Te          18.50287177020945       16.56651794426928       18.46741027847285
Te          13.26909976788145       16.72621158473437       18.73626580097091
Hg          14.25859728458147       14.01157346074320       19.05837213329676
Hg          11.59416174777204       15.06165915009397       22.70328293128529
Hg          16.37306293647200       13.45553367449447       23.45183187001557
Hg          16.03593506394094       17.94366190653960       18.41873142638158
Te          13.93327183191527       13.63161426471603       21.88917356247372
Te          20.05213403437490       16.12993946917074       23.78088845368640
Te          18.25433413255151       14.56001932992975       25.31139664222576
Te          15.42205952195050       18.06991407198625       25.51243700446343
Hg          13.61793650140092       13.24677134368405       26.98717910057794
Hg          13.50684464172772       17.02751069715249       29.99597828694494
Hg          17.30573723636299       14.14779431947925       30.45085349456797
Hg          16.97871882867777       16.37696187403477       27.03592579343230
Te          15.11533584627080       14.94555568610041       28.68956341338874
Te          19.15210075274228       17.62103059835048       28.47667507203590
Hg          15.33672360410767       21.63769073162645        3.86209839823557
Hg          15.78287495226829       18.09183245575591        2.09352067200325
Te          16.65462435090057       20.75591092936687        1.52757112596344
Te          18.16016879114677       20.71273313053285        5.25211383106887
Te          14.87313378842907       24.17176192998155        5.20250096169835
Hg          14.10347103220077       19.03796685139056        6.91294911612192
Hg          14.74519219549730       23.02467794914202       10.93606799579025
Hg          17.34724962623880       19.60984769860445       10.06307312262902
Hg          16.44837232139049       22.32615737356870        6.89496816118071
Te          15.10385784048651       20.88856052372448        8.89571007878948
Te          18.35306662929750       24.08223321218971        8.13033398949914
Te          19.55081555929391       20.06344750024456       15.75285478248303
Te          17.00088759632817       25.06041994351449       11.45997754057447
Hg          12.84036371813498       18.25016036674192       11.35013349417466
Hg          14.23783007072491       22.73149665594392       16.05701036269078
Hg          14.43990124177184       19.40803270120183       13.39565554128654
Hg          18.23991815487690       22.20867260753608       14.42581428616135
Te          15.56928184577061       22.05350477870303       13.62340142262628
Te          18.57008823370824       24.53129415623283       15.99891875116815
Te          19.52899404307557       21.02067267086846       18.40801167018958
Te          15.27577855244322       23.63706398466912       18.49574174247083
Hg          12.85021075830325       18.62518607422995       20.89345978164504
Hg          14.70763000610158       22.16577592622118       20.83769059812640
Hg          16.87926214070830       19.16999847275545       23.39620953036428
Hg          18.23853318576177       23.56831486381092       19.04127560485965
Te          15.57744972827035       19.42939333985811       20.89133377463112
Te          17.29874373762533       23.24267128289592       21.69548699546426
Te          17.96863196619404       21.09247580204704       25.15130239552256
Te          15.67111389995644       24.93960742307149       25.79259496059518
Hg          13.62746199274019       19.82728886890224       27.06393220706954
Hg          15.60623257470987       18.68354798178650       30.71577478687777
Hg          16.85456390487053       22.72013953759868       27.27397787985003
Te          15.21283905184766       21.09221879768431       29.00708197886323
Hg          16.15733638412368       25.83607003815582        7.32653761681786
Hg          16.67151223984654       27.94500537724170       10.57593916344863
Te          17.02189886870782       28.46733953219169        7.83965243429312
Te          17.30455471799896       28.73068015603221       13.37505483794827
Hg          15.36847280337866       26.34310730519360       13.51684885204051
Hg          13.51577406534423       29.42924947478574       16.28839071257028
Hg          16.98014291191296       26.15215432582591       17.94980038753906
Hg          14.51023233165072       30.01252097677572       13.86224258692583
Te          14.74545086948720       26.71494655234528       16.22700804887100
Te          18.59808627908068       28.66234896899087       17.87917326890951
Hg          13.60775917690139       25.87006019005488       19.96554372886763
Hg          17.09795494899192       25.62148167068516       23.29825323189888
Hg          16.42720467318970       29.59889956905736       19.60728340239845
Te          16.19250363396657       26.99625174916325       20.78141043865358
Hg          19.60358934754619        2.94262896695395       11.58966222935278
Te          22.07134214338923        6.33648967244806       12.77138610086398
Hg          20.25860765234814        4.05029609164863       17.10838634758557
Hg          21.82215364701864        3.41367718992518       12.98316984393489
Te          22.47982501930850        2.84810078048931       15.74802351076140
Te          23.70265731076875        6.85656262548951       14.92317428573909
Te          21.50695064733441        6.11139332773023       18.59983019302120
Hg          16.81787356352859        4.23236174308350       25.17926365811604
Hg          24.44382895489539        6.14688921318514       19.04722284921168
Te          25.20688921133805        5.64180697252260       21.69109802758572
Te          21.87500580486058        5.55412520956972       25.28732536170376
Hg          19.19838220562805       12.16027463562976        4.14602145731386
Te          21.58608995946990       11.23437188339813        7.44529016569655
Hg          20.34484541107434        5.52477287311717        8.44620726136795
Hg          20.99808001961275       10.01580968835547       10.08003868634937
Hg          22.78155333594110        7.97102552012689       10.41445216440547
Hg          24.39122188890808       11.92880732984652        6.97221482840546
Te          23.12624408291986        5.71180746999553        8.68328857570412
Te          26.04856117618975       13.39620008439829        8.98657157522812
Te          25.50617205135314        8.70582555360368       10.95137279020230
Te          22.34820051729941       12.14104165610060       11.74387480378555
Hg          19.32801131144846        7.25962696501204       13.30534927665009
Hg          18.35973898505222       11.46835774737191       16.20512973845164
Hg          22.03671504561167        8.29588358692662       16.82567544120218
Hg          21.61744156289097       11.99131485278371       14.46737635111208
Te          20.34333235747842        9.52847057360207       14.93927113208157
Te          22.85341637864440       12.85691934792937       16.83785605144101
Te          24.19691138581164        9.07849546975643       18.50884890512394
Te          20.62036468885147       11.48520696897792       18.24681615607470
Hg          19.98726199857017        7.46159624476625       20.52090045899279
Hg          19.79841742087781       10.37347607921765       23.88046817635343
Hg          23.35656645734174        6.99674438416819       23.24201518329938
Hg          22.67710749015378       10.72368952427090       20.23562908268599
Te          21.60722333271057        9.01480334005554       22.20387076885092
Te          25.71662499306368       11.36751564321289       24.49155717263228
Te          23.86300330771560        7.33994246277691       26.09405808805243
Te          21.60270451274587       11.80834947630142       25.52644925287568
Hg          18.99393407998940        5.85130141555367       25.23187869635885
Hg          23.87220838241756       10.20047866771463       26.32727236262018
Hg          19.68118828347768       15.23495762455569        1.21936783207900
Hg          22.40530828593832       15.61216139932082        3.87640155959426
Te          22.11761937390503       16.69168573067232        1.26955576247880
Te          24.61667016016581       14.36395238972348        5.35256732882110
Te          22.13185800722521       18.13956013153001        5.24003912399067
Hg          20.60662470025269       13.91076633466146        7.81351430348558
Hg          21.51796311055427       20.50609214836664       10.03650193874416
Hg          24.04044767201898       14.25067274279852       10.88801740865251
Hg          23.91540822190048       16.68110285176962        7.00392446479233
Te          22.38328279098396       15.79621534380965        9.19695522227475
Te          25.21338764172232       19.05746405972637        7.89774253533454
Te          25.40442708072952       15.27896790981789       13.17826112228185
Te          22.07386600543371       22.23680331373712       12.47040075443818
Hg          19.76329533082181       14.02040730596848       12.10563290817354
Hg          19.67502266835931       16.68215737776403       15.86078823468818
Hg          24.03737513844356       15.21815081674633       15.68273850923017
Hg          25.16454549732284       17.95447045998386       12.11092181644567
Te          22.33606792840489       17.45303638153150       15.98196594734092
Te          25.09241998902825       19.93211689090720       14.37978509660241
Te          25.74282928777634       16.35727349115092       17.61460338986486
Te          22.62077086507962       17.44318345893006       20.83124653097203
Hg          19.33538630592989       13.78488684688893       19.81424738930431
Hg          21.26719906273896       14.93372109645790       21.20947507677753
Hg          23.50172459835845       13.10688598216804       23.76778325504666
Hg          23.67859438128781       18.14179827808992       18.35013955305080
Te          23.61143101086164       13.26344307884685       20.98454711902073
Te          25.39103678469407       19.92975117177194       22.83465504043150
Te          24.50999965684368       15.60420028371114       24.73458723838618
Te          22.39221430337817       19.72974904700884       25.83657354350771
Hg          19.94696678068774       13.30320039805624       27.25274072726484
Hg          17.78615941376656       16.88597525746038       31.08742104019577
Hg          22.21280725042251       16.81862703832513       25.80707530790752
Te          21.18596139369199       15.75217500143088       28.27580983963335
Hg          19.38186549912949       20.92365784723926        2.55778815140677
Hg          21.59818285730526       19.36498542451816        2.46840496937217
Te          24.06518194568168       21.02018111304310        2.97811607938227
Te          20.17835750448731       23.74885615773015        3.10062586404397
Hg          20.00098499656697       19.18823998952646        6.75348214014273
Hg          19.00791718999749       21.85441652168900        9.99692094570463
Hg          23.39375159146474       18.60646192723949       10.24689197019288
Hg          22.95718089209673       23.56247264565540        3.70687236197110
Te          21.80960745942954       21.68964387783429        7.26283127554015
Te          24.08911713000982       25.12602126980626        5.81001481473495
Te          26.52153515817345       23.68699693776941       11.41623331284120
Te          19.59923107491780       23.54920407152840       12.27918624300049
Hg          22.05242780061339       19.84847171390524       14.30802064915827
Hg          21.33726672694031       25.26056285932074       16.40626567718206
Hg          25.36164448489931       22.15402058554704       16.21358698870284
Hg          23.70371833052206       24.37456778731513       11.05197679232379
Te          24.20524304676152       24.74366653286080       16.63587592243427
Te          25.43246970358168       26.65370070727381       15.08344433767054
Te          24.24590306139887       20.92452549916988       18.48326045806160
Te          20.94284231401128       24.96783735950481       19.22418588789343
Hg          19.92811624974763       18.54053528036598       19.83176520475694
Hg          19.47108402764442       22.72105082006917       23.36959214796171
Hg          22.38569666408614       19.48842162044653       22.93827875372565
Hg          21.91705437894179       22.24481128761629       19.33202929592930
Te          19.54606072993662       18.62150026847388       22.59441760783906
Te          21.86426461975281       22.07256960692071       22.08794086362933
Te          23.41470538926136       22.45375509238048       26.10792233532207
Te          19.90485997980516       25.46777265831176       24.10618919459536
Hg          19.85336624193639       20.12713193367154       27.08689401478432
Hg          20.92240545008639       23.98112525579884       26.35897183557284
Te          19.49586428029496       22.66733502289547       28.43771651618881
Hg          19.76153063966385       23.17104742030171        5.84647787642177
Hg          23.27097915598514       24.09332605579246        8.36123615748973
Hg          18.82718482365901       26.12236279584173       13.57071431268244
Hg          19.40128253064674       29.58398252732789       15.21170128009290
Hg          23.38989177221419       26.43366179732194       12.81772755481149
Te          21.22553865937759       27.39942052202941       14.51097158764124
Hg          20.95190294778411       27.88566684805005       19.35682107522783
Hg          24.12468372010030       25.34393254931281       19.60619463512405
Te          23.67732256500915       28.13289260158733       19.78115703336967
Hg          25.29009080715542       11.26644483119755       12.10794513456648
Te          27.72479819726176       12.50459262308870       10.97497222492392
Hg          25.95087081642033        8.07816508280295       13.64825074105560
Hg          25.29653154841940       11.34378963193474       17.25569457989564
Te          26.34839884703837       10.63269951981949       14.70182674937466
Te          27.79505512822433       12.45693842603125       18.08250933791501
Hg          24.50838582521705        4.67925267404387       16.79343346092473
Hg          26.93426074270687       13.95016711278222       24.36825953547312
Hg          26.88585513200568       15.31996974712592        6.96478862987234
Hg          27.92814777967314       18.66901321787677        8.67299072152474
Te          29.24935025302548       16.78831964800110        7.09167968102450
Te          27.93107275220221       18.83668546691605       11.48898710583832
Hg          28.24472410475465       14.42109322197253       13.20514828834473
Hg          26.87732225203144       18.56293072503497       16.28404846667576
Hg          28.41405713515673       12.67043043294810       15.26890288103348
Hg          29.46400869726470       16.81912877477298       12.96156301780664
Te          29.64063321967541       18.19269820481037       15.53194043188880
Te          28.16775042931510       19.76910265474472       18.67404483967621
Hg          27.89874243392072       15.10579938274208       19.13940246582244
Hg          25.23005223023862       17.09902818431033       22.42415652313920
Hg          29.54609343979178       17.06898733203137       18.34865404335065
Te          27.45590654045023       15.44511309226119       21.95628656093687
Hg          23.90246999014319       20.38464280179724        5.74454885142694
Hg          29.76441801376823       26.50055146543426       13.37266480354841
Hg          27.11034407844582       21.27451034091181       12.69699044574735
Hg          27.46965486557687       25.05797031491163       13.74877763923398
Hg          29.79898580624490       20.87359978997875       16.61496605992283
Te          28.02445686391855       22.58164580393885       15.15525220590600
Hg          26.33093885736873       21.13911256539603       20.41217459233656
Hg          24.34514371906825       22.69732979578348       23.39424828399435
Te          25.93838635485139       23.87337773657160       21.31500968429248
