81
energy: -101.029434111826 gnorm: 0.000027252044 xtb: 6.5.1 (579679a)
O          4.39450        0.60710        6.04030
C          4.01160        1.64990        6.50140
O          4.30040        2.82060        5.91340
C          3.16320        1.83090        7.75340
C          2.83460        0.44190        8.34440
C          1.46670       -0.04930        7.92310
C          1.37150       -1.21550        7.30010
C          0.11980       -1.82130        6.76070
C         -1.14420       -1.03500        7.11840
C         -0.86890        0.49400        7.11480
C         -2.17250        1.23370        7.46490
C         -3.37590        0.76610        6.65360
C         -3.60400       -0.72530        6.89480
C         -2.40730       -1.53620        6.33860
C         -2.26290       -1.46730        4.81070
C         -2.62300       -3.01380        6.73090
C         -3.99210       -3.54910        6.32710
C         -5.12370       -2.71090        6.91840
O         -6.38210       -3.27060        6.61060
C         -5.02260       -1.21690        6.51420
C         -5.40380       -1.01120        5.04460
C         -6.06790       -0.46810        7.35910
C         -0.39520        0.97420        5.73960
C          0.24460        0.80480        8.19400
C         -0.26470        0.50730        9.62220
C          0.69190        2.28710        8.19660
C          1.89750        2.58950        7.31220
C          3.06130        0.41270        9.85990
C          4.52750        0.68090       10.24370
C          4.57070        1.11270       11.71360
C          5.36660       -0.58770       10.07920
C          5.09740        1.80310        9.35240
C          3.99120        2.66180        8.74900
H          3.99246        3.62198        6.28881
H          3.52395       -0.26285        7.92844
H          2.24345       -1.75363        7.17700
H          0.02556       -2.81134        7.15547
H          0.20221       -1.81519        5.69390
H         -1.41589       -1.24321        8.13217
H         -2.38231        1.07699        8.50236
H         -2.01940        2.26687        7.23246
H         -3.19213        0.93517        5.61315
H         -4.24432        1.31330        6.95580
H         -3.61231       -0.91202        7.94835
H         -2.11198       -0.45093        4.51218
H         -3.15189       -1.84580        4.35100
H         -1.42425       -2.05718        4.50474
H         -2.52317       -3.10175        7.79260
H         -1.88924       -3.59160        6.20875
H         -4.08747       -4.55597        6.67640
H         -4.06626       -3.50434        5.26061
H         -5.01843       -2.73283        7.98298
H         -6.51136       -3.26656        5.64926
H         -4.69911       -1.51812        4.41902
H         -5.39542        0.03426        4.81692
H         -6.38309       -1.40608        4.87151
H         -5.83822       -0.58625        8.39746
H         -7.04005       -0.86882        7.16101
H         -6.05239        0.57152        7.10642
H          0.51176        0.46997        5.47868
H         -0.22033        2.02935        5.77102
H         -1.14612        0.75873        5.00844
H         -1.12845        1.10549        9.82467
H          0.50342        0.73880       10.33022
H         -0.52174       -0.52840        9.70069
H          0.93886        2.55917        9.20153
H         -0.12537        2.85059        7.79729
H          1.66332        2.30897        6.30653
H          2.10335        3.63639        7.39312
H          2.44584        1.16153       10.31307
H          2.80939       -0.56769       10.20669
H          4.17429        0.33062       12.32688
H          3.98476        1.99869       11.84244
H          5.58320        1.31025       11.99770
H          5.34447       -0.89977        9.05596
H          4.96534       -1.36339       10.69742
H          6.37686       -0.38720       10.36917
H          5.66492        1.36180        8.55989
H          5.71285        2.43200        9.96117
H          4.42786        3.49452        8.23832
H          3.35125        3.01106        9.53219
